 138
 MD trajectory step
 Zn         8.7672      13.1679       7.6606
 Zn         9.3849       5.7654       7.3110
 Zn         5.7485       9.0857       8.7851
 Zn        11.9655       9.9595       5.2010
 O          8.6499      13.6712       9.8307
 O         10.8201      13.6274       8.7034
 O          8.7311      13.6799       5.2060
 O          6.7939      12.9216       6.4197
 O          9.2340      11.2885       7.0149
 O          8.5440      15.5251       7.3247
 O          9.7356       5.7570       9.5769
 O         11.5305       5.3379       8.0867
 O          9.3006       5.7210       4.9832
 O          7.2318       5.4582       6.2425
 O          9.4813       3.2671       7.1346
 O          8.8771       7.7925       7.3926
 O          6.1866       9.2872      11.0266
 O          8.0884       9.1385       9.5973
 O          6.2073       8.9737       6.3900
 O          3.9613       8.8417       7.4056
 O          6.4171       6.8246       8.5038
 O          5.7578      11.2550       8.3131
 O         11.5053       9.9404       7.4775
 O         13.8371       9.8010       6.6573
 O         11.5340       9.8821       3.0031
 O          9.6678       9.5925       4.4570
 O         11.7346       7.5927       5.4662
 O         11.3543      12.1744       5.1347
 C          7.4862      13.2065       5.1732
 C          6.7303      12.9494       3.7897
 C         10.0714      13.5805       9.8501
 C         10.7387      13.2281      11.2600
 C          7.8742       5.6118       4.9974
 C          7.1002       5.5117       3.6616
 C         11.0338       5.5542       9.3736
 C         12.0073       5.5666      10.6116
 C          4.8298       8.8660       6.2972
 C          4.1412       8.7826       4.8484
 C          7.5572       9.1858      10.8436
 C          8.5631       9.1826      12.1155
 C         10.0872       9.7505       3.2412
 C          9.1456       9.9230       2.0651
 C         12.9236       9.9174       7.7256
 C         13.3426       9.9029       9.3035
 H          7.5092      13.3026       2.9870
 H          6.3866      11.8369       3.7054
 H          5.7182      13.5168       3.6410
 H         10.0140      12.5734      11.8713
 H         11.8138      12.7601      11.0002
 H         10.9066      14.2679      11.7953
 H          9.1293      10.8713       5.9767
 H         10.0422      10.7723       7.5064
 H          7.5239      15.8169       7.2305
 H          8.8899      16.0379       8.1377
 H          7.8335       5.5927       2.7452
 H          6.5511       4.4706       3.5869
 H          6.2721       6.3341       3.5325
 H         11.3851       5.1132      11.5060
 H         13.0317       5.1246      10.2318
 H         12.1367       6.7035      10.7747
 H          9.2185       3.0720       6.0831
 H         10.4810       2.9936       7.2245
 H          8.0740       8.0252       6.6846
 H          8.8919       8.4750       8.3479
 H          4.9008       9.2044       4.0493
 H          3.8821       7.6692       4.4834
 H          3.1202       9.4136       4.7963
 H          7.9524       9.0209      13.1314
 H          9.2814       8.2974      11.9096
 H          9.0624      10.2252      12.0728
 H          6.4803       6.4126       7.3497
 H          7.2935       6.3858       9.0990
 H          6.0112      11.7194       7.3462
 H          6.1547      11.9332       9.0643
 H          9.7229      10.0702       1.0783
 H          8.4801       8.9428       2.0049
 H          8.5637      10.9041       2.3642
 H         12.3672       9.6607       9.9526
 H         14.1658       9.1425       9.6145
 H         13.6887      10.9949       9.6464
 H         10.7600       6.9765       5.1625
 H         12.2939       7.0789       6.3094
 H         11.9129      12.9713       4.5786
 H         10.2153      12.5575       5.1297
 O          2.0261       8.7517      12.9641
 C          3.6061       9.6016      11.3409
 C          3.2361       8.4610      12.2944
 H          3.0561      10.5340      11.4714
 H          4.6461       9.8997      11.5046
 H          3.6561       9.3280      10.2869
 H          3.9661       8.3842      13.0960
 H          3.1161       7.4322      11.9331
 H          1.6861       9.5776      12.6840
 O          4.6720       8.7517      12.9641
 C          7.0831       8.9307      13.0541
 C          5.7381       9.4675      13.5541
 H          7.0446       8.2745      12.1841
 H          7.7106       9.7601      12.7141
 H          7.7313       8.5122      13.8241
 H          5.5866      10.4887      13.2141
 H          5.4980       9.4962      14.6241
 H          4.9996       8.0855      12.3941
 O         -0.6198       8.7517      12.9641
 C         -1.0558      11.1298      13.0541
 C         -1.4456       9.7351      13.5541
 H         -0.3993      11.1618      12.1841
 H         -1.9476      11.6649      12.7141
 H         -0.7091      11.8191      13.8241
 H         -2.4447       9.4752      13.2141
 H         -1.4484       9.4933      14.6241
 H          0.0076       9.1487      12.3941
 O          2.0261      11.3976      12.9641
 C          1.8855       8.9840      13.0541
 C          2.5950      10.2464      13.5541
 H          1.2401       9.1087      12.1841
 H          2.6249       8.2525      12.7141
 H          1.3852       8.3966      13.8241
 H          3.6272      10.2618      13.2141
 H          2.6551      10.4806      14.6241
 H          1.3225      11.1607      12.3941
 O          2.0261       6.1058      12.9641
 C          3.6061       4.4068      13.6499
 C          3.2361       5.8934      13.6625
 H          3.0561       3.7811      12.9463
 H          4.6461       4.2857      13.3320
 H          3.6561       3.9323      14.6300
 H          3.9661       6.4713      13.1017
 H          3.1161       6.4430      14.6043
 H          1.6861       5.2953      12.6424
 O          2.0261       8.7517      15.6100
 C          4.3838       9.2872      15.7000
 C          2.9740       9.6180      16.2000
 H          4.4433       8.6325      14.8300
 H          4.8810      10.2007      15.3600
 H          5.0870       8.9697      16.4700
 H          2.6723      10.6054      15.8600
 H          2.7322       9.6107      17.2700
 H          2.4491       8.1416      15.0400
 138
 MD trajectory step
 Zn         8.7672      13.1679      10.3065
 Zn         9.3849       5.7654       9.9569
 Zn         5.7485       9.0857      11.4310
 Zn        11.9655       9.9595       7.8468
 O          8.6499      13.6712      12.4766
 O         10.8201      13.6274      11.3493
 O          8.7311      13.6799       7.8519
 O          6.7939      12.9216       9.0656
 O          9.2340      11.2885       9.6608
 O          8.5440      15.5251       9.9706
 O          9.7356       5.7570      12.2228
 O         11.5305       5.3379      10.7326
 O          9.3006       5.7210       7.6291
 O          7.2318       5.4582       8.8883
 O          9.4813       3.2671       9.7805
 O          8.8771       7.7925      10.0384
 O          6.1866       9.2872      13.6725
 O          8.0884       9.1385      12.2432
 O          6.2073       8.9737       9.0359
 O          3.9613       8.8417      10.0515
 O          6.4171       6.8246      11.1497
 O          5.7578      11.2550      10.9590
 O         11.5053       9.9404      10.1234
 O         13.8371       9.8010       9.3032
 O         11.5340       9.8821       5.6490
 O          9.6678       9.5925       7.1029
 O         11.7346       7.5927       8.1121
 O         11.3543      12.1744       7.7806
 C          7.4862      13.2065       7.8191
 C          6.7303      12.9494       6.4356
 C         10.0714      13.5805      12.4960
 C         10.7387      13.2281      13.9059
 C          7.8742       5.6118       7.6433
 C          7.1002       5.5117       6.3075
 C         11.0338       5.5542      12.0195
 C         12.0073       5.5666      13.2575
 C          4.8298       8.8660       8.9431
 C          4.1412       8.7826       7.4943
 C          7.5572       9.1858      13.4895
 C          8.5631       9.1826      14.7614
 C         10.0872       9.7505       5.8871
 C          9.1456       9.9230       4.7110
 C         12.9236       9.9174      10.3715
 C         13.3426       9.9029      11.9494
 H          7.5092      13.3026       5.6329
 H          6.3866      11.8369       6.3513
 H          5.7182      13.5168       6.2869
 H         10.0140      12.5734      14.5172
 H         11.8138      12.7601      13.6461
 H         10.9066      14.2679      14.4412
 H          9.1293      10.8713       8.6226
 H         10.0422      10.7723      10.1522
 H          7.5239      15.8169       9.8764
 H          8.8899      16.0379      10.7835
 H          7.8335       5.5927       5.3911
 H          6.5511       4.4706       6.2327
 H          6.2721       6.3341       6.1784
 H         11.3851       5.1132      14.1518
 H         13.0317       5.1246      12.8777
 H         12.1367       6.7035      13.4206
 H          9.2185       3.0720       8.7290
 H         10.4810       2.9936       9.8704
 H          8.0740       8.0252       9.3305
 H          8.8919       8.4750      10.9937
 H          4.9008       9.2044       6.6952
 H          3.8821       7.6692       7.1293
 H          3.1202       9.4136       7.4422
 H          7.9524       9.0209      15.7773
 H          9.2814       8.2974      14.5555
 H          9.0624      10.2252      14.7187
 H          6.4803       6.4126       9.9955
 H          7.2935       6.3858      11.7449
 H          6.0112      11.7194       9.9921
 H          6.1547      11.9332      11.7102
 H          9.7229      10.0702       3.7242
 H          8.4801       8.9428       4.6508
 H          8.5637      10.9041       5.0101
 H         12.3672       9.6607      12.5985
 H         14.1658       9.1425      12.2603
 H         13.6887      10.9949      12.2923
 H         10.7600       6.9765       7.8084
 H         12.2939       7.0789       8.9553
 H         11.9129      12.9713       7.2245
 H         10.2153      12.5575       7.7756
 O          5.7303       8.7517      12.9641
 C          7.3103       9.6016      11.3409
 C          6.9403       8.4610      12.2944
 H          6.7603      10.5340      11.4714
 H          8.3503       9.8997      11.5046
 H          7.3603       9.3280      10.2869
 H          7.6703       8.3842      13.0960
 H          6.8203       7.4322      11.9331
 H          5.3903       9.5776      12.6840
 O         -1.6781       8.7517      12.9641
 C          0.7329       8.9307      13.0541
 C         -0.6120       9.4675      13.5541
 H          0.6945       8.2745      12.1841
 H          1.3605       9.7601      12.7141
 H          1.3812       8.5122      13.8241
 H         -0.7635      10.4887      13.2141
 H         -0.8521       9.4962      14.6241
 H         -1.3505       8.0855      12.3941
 O          2.0261      12.4560      12.9641
 C          1.5900      14.8340      13.0541
 C          1.2003      13.4394      13.5541
 H          2.2466      14.8660      12.1841
 H          0.6982      15.3692      12.7141
 H          1.9368      15.5234      13.8241
 H          0.2012      13.1794      13.2141
 H          1.1975      13.1975      14.6241
 H          2.6535      12.8530      12.3941
 O          2.0261       5.0475      12.9641
 C          1.8855       2.6339      13.0541
 C          2.5950       3.8962      13.5541
 H          1.2401       2.7585      12.1841
 H          2.6249       1.9024      12.7141
 H          1.3852       2.0465      13.8241
 H          3.6272       3.9117      13.2141
 H          2.6551       4.1305      14.6241
 H          1.3225       4.8106      12.3941
 O          2.0261       8.7517      16.6683
 C          3.6061       7.0527      17.3541
 C          3.2361       8.5393      17.3668
 H          3.0561       6.4270      16.6505
 H          4.6461       6.9316      17.0363
 H          3.6561       6.5782      18.3342
 H          3.9661       9.1172      16.8060
 H          3.1161       9.0889      18.3085
 H          1.6861       7.9412      16.3466
 O          2.0261       8.7517       9.2598
 C          4.3838       9.2872       9.3498
 C          2.9740       9.6180       9.8498
 H          4.4433       8.6325       8.4798
 H          4.8810      10.2007       9.0098
 H          5.0870       8.9697      10.1198
 H          2.6723      10.6054       9.5098
 H          2.7322       9.6107      10.9198
 H          2.4491       8.1416       8.6898
 138
 MD trajectory step
 Zn         8.7672      13.1679      10.3065
 Zn         9.3849       5.7654       9.9569
 Zn         5.7485       9.0857      11.4310
 Zn        11.9655       9.9595       7.8468
 O          8.6499      13.6712      12.4766
 O         10.8201      13.6274      11.3493
 O          8.7311      13.6799       7.8519
 O          6.7939      12.9216       9.0656
 O          9.2340      11.2885       9.6608
 O          8.5440      15.5251       9.9706
 O          9.7356       5.7570      12.2228
 O         11.5305       5.3379      10.7326
 O          9.3006       5.7210       7.6291
 O          7.2318       5.4582       8.8883
 O          9.4813       3.2671       9.7805
 O          8.8771       7.7925      10.0384
 O          6.1866       9.2872      13.6725
 O          8.0884       9.1385      12.2432
 O          6.2073       8.9737       9.0359
 O          3.9613       8.8417      10.0515
 O          6.4171       6.8246      11.1497
 O          5.7578      11.2550      10.9590
 O         11.5053       9.9404      10.1234
 O         13.8371       9.8010       9.3032
 O         11.5340       9.8821       5.6490
 O          9.6678       9.5925       7.1029
 O         11.7346       7.5927       8.1121
 O         11.3543      12.1744       7.7806
 C          7.4862      13.2065       7.8191
 C          6.7303      12.9494       6.4356
 C         10.0714      13.5805      12.4960
 C         10.7387      13.2281      13.9059
 C          7.8742       5.6118       7.6433
 C          7.1002       5.5117       6.3075
 C         11.0338       5.5542      12.0195
 C         12.0073       5.5666      13.2575
 C          4.8298       8.8660       8.9431
 C          4.1412       8.7826       7.4943
 C          7.5572       9.1858      13.4895
 C          8.5631       9.1826      14.7614
 C         10.0872       9.7505       5.8871
 C          9.1456       9.9230       4.7110
 C         12.9236       9.9174      10.3715
 C         13.3426       9.9029      11.9494
 H          7.5092      13.3026       5.6329
 H          6.3866      11.8369       6.3513
 H          5.7182      13.5168       6.2869
 H         10.0140      12.5734      14.5172
 H         11.8138      12.7601      13.6461
 H         10.9066      14.2679      14.4412
 H          9.1293      10.8713       8.6226
 H         10.0422      10.7723      10.1522
 H          7.5239      15.8169       9.8764
 H          8.8899      16.0379      10.7835
 H          7.8335       5.5927       5.3911
 H          6.5511       4.4706       6.2327
 H          6.2721       6.3341       6.1784
 H         11.3851       5.1132      14.1518
 H         13.0317       5.1246      12.8777
 H         12.1367       6.7035      13.4206
 H          9.2185       3.0720       8.7290
 H         10.4810       2.9936       9.8704
 H          8.0740       8.0252       9.3305
 H          8.8919       8.4750      10.9937
 H          4.9008       9.2044       6.6952
 H          3.8821       7.6692       7.1293
 H          3.1202       9.4136       7.4422
 H          7.9524       9.0209      15.7773
 H          9.2814       8.2974      14.5555
 H          9.0624      10.2252      14.7187
 H          6.4803       6.4126       9.9955
 H          7.2935       6.3858      11.7449
 H          6.0112      11.7194       9.9921
 H          6.1547      11.9332      11.7102
 H          9.7229      10.0702       3.7242
 H          8.4801       8.9428       4.6508
 H          8.5637      10.9041       5.0101
 H         12.3672       9.6607      12.5985
 H         14.1658       9.1425      12.2603
 H         13.6887      10.9949      12.2923
 H         10.7600       6.9765       7.8084
 H         12.2939       7.0789       8.9553
 H         11.9129      12.9713       7.2245
 H         10.2153      12.5575       7.7756
 O         12.6096       8.7517      12.9641
 C         14.1896       9.6016      11.3409
 C         13.8196       8.4610      12.2944
 H         13.6396      10.5340      11.4714
 H         15.2296       9.8997      11.5046
 H         14.2396       9.3280      10.2869
 H         14.5496       8.3842      13.0960
 H         13.6996       7.4322      11.9331
 H         12.2696       9.5776      12.6840
 O         -8.5574       8.7517      12.9641
 C         -6.1464       8.9307      13.0541
 C         -7.4913       9.4675      13.5541
 H         -6.1848       8.2745      12.1841
 H         -5.5188       9.7601      12.7141
 H         -5.4981       8.5122      13.8241
 H         -7.6428      10.4887      13.2141
 H         -7.7314       9.4962      14.6241
 H         -8.2298       8.0855      12.3941
 O          2.0261      19.3353      12.9641
 C          1.5900      21.7133      13.0541
 C          1.2003      20.3187      13.5541
 H          2.2466      21.7453      12.1841
 H          0.6982      22.2485      12.7141
 H          1.9368      22.4027      13.8241
 H          0.2012      20.0587      13.2141
 H          1.1975      20.0768      14.6241
 H          2.6535      19.7323      12.3941
 O          2.0261      -1.8318      12.9641
 C          1.8855      -4.2454      13.0541
 C          2.5950      -2.9831      13.5541
 H          1.2401      -4.1208      12.1841
 H          2.6249      -4.9769      12.7141
 H          1.3852      -4.8328      13.8241
 H          3.6272      -2.9676      13.2141
 H          2.6551      -2.7488      14.6241
 H          1.3225      -2.0687      12.3941
 O          2.0261       8.7517      23.5476
 C          3.6061       7.0527      24.2334
 C          3.2361       8.5393      24.2461
 H          3.0561       6.4270      23.5299
 H          4.6461       6.9316      23.9156
 H          3.6561       6.5782      25.2136
 H          3.9661       9.1172      23.6853
 H          3.1161       9.0889      25.1878
 H          1.6861       7.9412      23.2259
 O          2.0261       8.7517       2.3805
 C          4.3838       9.2872       2.4705
 C          2.9740       9.6180       2.9705
 H          4.4433       8.6325       1.6005
 H          4.8810      10.2007       2.1305
 H          5.0870       8.9697       3.2405
 H          2.6723      10.6054       2.6305
 H          2.7322       9.6107       4.0405
 H          2.4491       8.1416       1.8105
